case14_GOC_6-12 off.m
function mpc = case14_GOC_6-12 off
%CASE14    Power flow data for IEEE 14 bus test case.
%   Please see CASEFORMAT for details on the case file format.
%   This data was converted from IEEE Common Data Format
%   (ieee14cdf.txt) on 15-Oct-2014 by cdf2matp, rev. 2393
%   See end of file for warnings generated during conversion.
%
%   Converted from IEEE CDF file from:
%       http://www.ee.washington.edu/research/pstca/
% 
%  08/19/93 UW ARCHIVE           100.0  1962 W IEEE 14 Bus Test Case

%   MATPOWER

%% MATPOWER Case Format : Version 2
mpc.version = '2';

%%-----  Power Flow Data  -----%%
%% system MVA base
mpc.baseMVA = 100;

%% bus data
%	bus_i	type	Pd	Qd	Gs	Bs	area	Vm	Va	baseKV	zone	Vmax	Vmin
mpc.bus = [
	1	3	0	0	0	0	1	1.06	0	0	1	1.1	0.9;
	2	2	16.8107	11.0049	0	0	1	1.045	-4.98	0	1	1.1	0.9;
	3	2	80.6619	22.2494	0	0	1	1.01	-12.72	0	1	1.1	0.9;
	4	1	51.2353	-3.56689	0	0	1	1.019	-10.33	0	1	1.1	0.9;
	5	1	7.12513	2.06002	0	0	1	1.02	-8.78	0	1	1.1	0.9;
	6	2	10.9828	5.44992	0	0	1	1.07	-14.22	0	1	1.1	0.9;
	7	1	0	0	0	0	1	1.062	-13.37	0	1	1.1	0.9;
	8	2	0	0	0	0	1	1.09	-13.36	0	1	1.1	0.9;
	9	1	24.6838	15.825	0	19	1	1.056	-14.94	0	1	1.1	0.9;
	10	1	8.82166	5.55373	0	0	1	1.051	-15.1	0	1	1.1	0.9;
	11	1	3.8463	1.4532	0	0	1	1.057	-14.79	0	1	1.1	0.9;
	12	1	5.64342	1.74133	0	0	1	1.055	-15.07	0	1	1.1	0.9;
	13	1	11.6657	5.2813	0	0	1	1.05	-15.16	0	1	1.1	0.9;
	14	1	13.0513	4.52762	0	0	1	1.036	-16.04	0	1	1.1	0.9;
];

%% generator data
%	bus	Pg	Qg	Qmax	Qmin	Vg	mBase	status	Pmax	Pmin	Pc1	Pc2	Qc1min	Qc1max	Qc2min	Qc2max	ramp_agc	ramp_10	ramp_30	ramp_q	apf
mpc.gen = [
	1	232.393	-16.549	76.0611	-132.202	1.06	100	1	245.445	37.965	0	0	0	0	0	0	0	0	0	0	0;
	2	40	43.557	36.1668	-76.9812	1.045	100	1	157.503	48.1483	0	0	0	0	0	0	0	0	0	0	0;
	3	0	25.075	48.5123	-0.87933	1.01	100	1	82.4999	5.80179	0	0	0	0	0	0	0	0	0	0	0;
	6	0	12.731	19.4714	-19.113	1.07	100	1	110.503	11.4611	0	0	0	0	0	0	0	0	0	0	0;
	8	0	17.623	19.2373	-8.03365	1.09	100	1	80.1448	0.319829	0	0	0	0	0	0	0	0	0	0	0;
];

%% branch data
%	fbus	tbus	r	x	b	rateA	rateB	rateC	ratio	angle	status	angmin	angmax
mpc.branch = [
	1	2	0.01938	0.05917	0.0528	141.6	0	0	0	0	1	-360	360;
	1	5	0.05403	0.22304	0.0492	51.6	0	0	0	0	1	-360	360;
	2	3	0.04699	0.19797	0.0438	210	0	0	0	0	1	-360	360;
	2	4	0.05811	0.17632	0.034	109.2	0	0	0	0	1	-360	360;
	2	5	0.05695	0.17388	0.0346	73.2	0	0	0	0	1	-360	360;
	3	4	0.06701	0.17103	0.0128	122.4	0	0	0	0	1	-360	360;
	4	5	0.01335	0.04211	0	458.4	0	0	0	0	1	-360	360;
	4	7	0	0.20912	0	100	0	0	0.978	0	1	-360	360;
	4	9	0	0.55618	0	100	0	0	0.969	0	1	-360	360;
	5	6	0	0.25202	0	100	0	0	0.932	0	1	-360	360;
	6	11	0.09498	0.1989	0	175.2	0	0	0	0	1	-360	360;
	6	12	0.12291	0.25581	0	51.6	0	0	0	0	0	-360	360;
	6	13	0.06615	0.13027	0	176.4	0	0	0	0	1	-360	360;
	7	8	0	0.17615	0	56.4	0	0	0	0	1	-360	360;
	7	9	0	0.11001	0	124.8	0	0	0	0	1	-360	360;
	9	10	0.03181	0.0845	0	255.6	0	0	0	0	1	-360	360;
	9	14	0.12711	0.27038	0	48	0	0	0	0	1	-360	360;
	10	11	0.08205	0.19207	0	156	0	0	0	0	1	-360	360;
	12	13	0.22092	0.19988	0	38.4	0	0	0	0	1	-360	360;
	13	14	0.17093	0.34802	0	85.2	0	0	0	0	1	-360	360;
];

%%-----  OPF Data  -----%%
%% generator cost data
%	1	startup	shutdown	n	x1	y1	...	xn	yn
%	2	startup	shutdown	n	c(n-1)	...	c0
mpc.gencost = [
	2	0	0	3	2.082286932 140.3842614	1375.9;
	2	0	0	3	0.013475833	5.275836689	67.9;
	2	0	0	3	0.049040857	143.3363115	2576.52;
	2	0	0	3	0.001861248	4.86711941	92.88;
	2	0	0	3	1.974646976	163.6181252	243.3333333;
];

%% bus names
mpc.bus_name = {
	'Bus 1     HV';
	'Bus 2     HV';
	'Bus 3     HV';
	'Bus 4     HV';
	'Bus 5     HV';
	'Bus 6     LV';
	'Bus 7     ZV';
	'Bus 8     TV';
	'Bus 9     LV';
	'Bus 10    LV';
	'Bus 11    LV';
	'Bus 12    LV';
	'Bus 13    LV';
	'Bus 14    LV';
};

% Warnings from cdf2matp conversion:
%
% ***** check the title format in the first line of the cdf file.
% ***** Qmax = Qmin at generator at bus    1 (Qmax set to Qmin + 10)
% ***** MVA limit of branch 1 - 2 not given, set to 0
% ***** MVA limit of branch 1 - 5 not given, set to 0
% ***** MVA limit of branch 2 - 3 not given, set to 0
% ***** MVA limit of branch 2 - 4 not given, set to 0
% ***** MVA limit of branch 2 - 5 not given, set to 0
% ***** MVA limit of branch 3 - 4 not given, set to 0
% ***** MVA limit of branch 4 - 5 not given, set to 0
% ***** MVA limit of branch 4 - 7 not given, set to 0
% ***** MVA limit of branch 4 - 9 not given, set to 0
% ***** MVA limit of branch 5 - 6 not given, set to 0
% ***** MVA limit of branch 6 - 11 not given, set to 0
% ***** MVA limit of branch 6 - 12 not given, set to 0
% ***** MVA limit of branch 6 - 13 not given, set to 0
% ***** MVA limit of branch 7 - 8 not given, set to 0
% ***** MVA limit of branch 7 - 9 not given, set to 0
% ***** MVA limit of branch 9 - 10 not given, set to 0
% ***** MVA limit of branch 9 - 14 not given, set to 0
% ***** MVA limit of branch 10 - 11 not given, set to 0
% ***** MVA limit of branch 12 - 13 not given, set to 0
% ***** MVA limit of branch 13 - 14 not given, set to 0
